examples/data/enwl/lv-network-models/network_21/Feeder_1/Loads.dss
New Load.LOAD1 Phases=1 Bus1=126.2 kV=0.23 kW=1 PF=0.95
New Load.LOAD2 Phases=1 Bus1=135.1 kV=0.23 kW=1 PF=0.95
New Load.LOAD3 Phases=1 Bus1=158.3 kV=0.23 kW=1 PF=0.95
New Load.LOAD4 Phases=1 Bus1=163.1 kV=0.23 kW=1 PF=0.95
New Load.LOAD5 Phases=1 Bus1=178.1 kV=0.23 kW=1 PF=0.95
New Load.LOAD6 Phases=1 Bus1=184.3 kV=0.23 kW=1 PF=0.95
New Load.LOAD7 Phases=1 Bus1=277.1 kV=0.23 kW=1 PF=0.95
New Load.LOAD8 Phases=1 Bus1=315.2 kV=0.23 kW=1 PF=0.95
New Load.LOAD9 Phases=1 Bus1=350.2 kV=0.23 kW=1 PF=0.95
New Load.LOAD10 Phases=1 Bus1=357.3 kV=0.23 kW=1 PF=0.95
New Load.LOAD11 Phases=1 Bus1=368.1 kV=0.23 kW=1 PF=0.95
New Load.LOAD12 Phases=1 Bus1=369.1 kV=0.23 kW=1 PF=0.95
New Load.LOAD13 Phases=1 Bus1=472.2 kV=0.23 kW=1 PF=0.95
New Load.LOAD14 Phases=1 Bus1=474.1 kV=0.23 kW=1 PF=0.95
New Load.LOAD15 Phases=1 Bus1=482.3 kV=0.23 kW=1 PF=0.95
New Load.LOAD16 Phases=1 Bus1=486.2 kV=0.23 kW=1 PF=0.95
New Load.LOAD17 Phases=1 Bus1=488.1 kV=0.23 kW=1 PF=0.95
New Load.LOAD18 Phases=1 Bus1=523.3 kV=0.23 kW=1 PF=0.95
New Load.LOAD19 Phases=1 Bus1=537.2 kV=0.23 kW=1 PF=0.95
New Load.LOAD20 Phases=1 Bus1=561.1 kV=0.23 kW=1 PF=0.95
New Load.LOAD21 Phases=1 Bus1=601.1 kV=0.23 kW=1 PF=0.95
New Load.LOAD22 Phases=1 Bus1=623.1 kV=0.23 kW=1 PF=0.95